@<TRIPOS>MOLECULE
ZINC01037827
   36    38     0     0     0
SMALL
USER_CHARGES
2-(4-chlorophenyl)sulfonyl-3-(4,6-dimethyl-2,8-dithiabicyclo[3.3.0]octa-3,6,9-trien-3-yl)-prop-2-enenitrile
@<TRIPOS>ATOM
      1 C1          5.1681    7.7554    6.2031 C.3       1 <0>        -0.1171
      2 C2          3.8268    7.1920    6.5959 C.2       1 <0>        -0.0705
      3 C3          3.3810    7.3421    7.8461 C.2       1 <0>        -0.1904
      4 S1          1.7950    6.5274    7.8152 S.3       1 <0>         0.1878
      5 C4          1.7909    6.0179    6.1304 C.2       1 <0>        -0.2340
      6 C5          3.0087    6.4764    5.5992 C.2       1 <0>        -0.1512
      7 C6          3.1909    6.1509    4.2303 C.2       1 <0>         0.0280
      8 C7          2.2213    5.4590    3.5464 C.2       1 <0>        -0.2458
      9 S2          0.9751    5.2032    4.7989 S.3       1 <0>         0.2454
     10 C8          2.2145    5.0472    2.1918 C.2       1 <0>         0.1866
     11 C9          1.1545    4.3599    1.6970 C.2       1 <0>        -0.6629
     12 C10         0.0426    4.0509    2.5448 C.1       1 <0>         0.2577
     13 N1         -0.8394    3.8058    3.2174 N.1       1 <0>        -0.3727
     14 S3          1.1461    3.8474    0.0112 S.o2      1 <0>         2.5978
     15 O1          2.3804    4.2738   -0.5491 O.2       1 <0>        -0.9231
     16 O2         -0.1099    4.2388   -0.5260 O.2       1 <0>        -0.9173
     17 C11         1.1708    2.0856    0.0021 C.ar      1 <0>        -0.6620
     18 C12        -0.0167    1.3779    0.0096 C.ar      1 <0>        -0.0058
     19 C13         0.0021   -0.0041    0.0020 C.ar      1 <0>        -0.1293
     20 C14         1.2096   -0.6792   -0.0131 C.ar      1 <0>         0.0205
     21 C15         2.3977    0.0297   -0.0206 C.ar      1 <0>        -0.1308
     22 C16         2.3777    1.4116   -0.0130 C.ar      1 <0>        -0.0047
     23 Cl1         1.2340   -2.4150   -0.0221 Cl        1 <0>        -0.0495
     24 C17         4.4532    6.5701    3.5218 C.3       1 <0>        -0.1371
     25 H1          5.9412    7.0064    6.3745 H         1 <0>         0.0771
     26 H2          5.1531    8.0270    5.1476 H         1 <0>         0.0784
     27 H3          5.3803    8.6404    6.8030 H         1 <0>         0.0739
     28 H4          3.8645    7.8370    8.6754 H         1 <0>         0.1985
     29 H5          3.0531    5.2803    1.5524 H         1 <0>         0.1844
     30 H6         -0.9593    1.9051    0.0169 H         1 <0>         0.1523
     31 H7         -0.9257   -0.5569    0.0082 H         1 <0>         0.1474
     32 H8          3.3407   -0.4968   -0.0321 H         1 <0>         0.1481
     33 H9          3.3051    1.9651   -0.0192 H         1 <0>         0.1562
     34 H10         4.3131    7.5585    3.0841 H         1 <0>         0.0921
     35 H11         5.2767    6.6020    4.2351 H         1 <0>         0.0897
     36 H12         4.6828    5.8529    2.7337 H         1 <0>         0.0823
@<TRIPOS>BOND
     1    1    2 1
     2    1   25 1
     3    1   26 1
     4    1   27 1
     5    2    6 1
     6    2    3 2
     7    3    4 1
     8    3   28 1
     9    4    5 1
    10    5    9 1
    11    5    6 2
    12    6    7 1
    13    7    8 2
    14    7   24 1
    15    8    9 1
    16    8   10 1
    17   10   11 2
    18   10   29 1
    19   11   12 1
    20   11   14 1
    21   12   13 3
    22   14   15 2
    23   14   16 2
    24   14   17 1
    25   17   22 ar
    26   17   18 ar
    27   18   19 ar
    28   18   30 1
    29   19   20 ar
    30   19   31 1
    31   20   21 ar
    32   20   23 1
    33   21   22 ar
    34   21   32 1
    35   22   33 1
    36   24   34 1
    37   24   35 1
    38   24   36 1
