@<TRIPOS>MOLECULE
ZINC00173077
   45    46     0     0     0
SMALL
USER_CHARGES
2,2,6,6-tetramethyl-N-(o-tolyl)piperidin-4-amine
@<TRIPOS>ATOM
      1 C1         -0.0862    5.3516    0.0321 C.3       1 <0>        -0.1093
      2 C2         -0.0598    3.8449    0.0233 C.ar      1 <0>        -0.1510
      3 C3         -1.2433    3.1326    0.0308 C.ar      1 <0>        -0.0718
      4 C4         -1.2200    1.7502    0.0174 C.ar      1 <0>        -0.1608
      5 C5         -0.0126    1.0758    0.0080 C.ar      1 <0>        -0.0790
      6 C6          1.1742    1.7817    0.0004 C.ar      1 <0>        -0.1956
      7 C7          1.1544    3.1708    0.0081 C.ar      1 <0>         0.2029
      8 N1          2.3530    3.8879    0.0009 N.pl3     1 <0>        -0.7461
      9 C8          3.6358    3.1736   -0.0147 C.3       1 <0>         0.1494
     10 C9          4.0363    2.8270    1.4190 C.3       1 <0>        -0.1454
     11 C10         5.3792    2.1008    1.4346 C.3       1 <0>         0.0643
     12 C11         6.0619    3.3720   -0.6209 C.3       1 <0>         0.0675
     13 C12         4.7101    4.0813   -0.6131 C.3       1 <0>        -0.1356
     14 C13         6.0855    2.3264   -1.7422 C.3       1 <0>        -0.1740
     15 C14         7.1389    4.4274   -0.9576 C.3       1 <0>        -0.1845
     16 C15         5.1862    0.6561    0.9584 C.3       1 <0>        -0.1748
     17 C16         5.8573    2.0383    2.9023 C.3       1 <0>        -0.1837
     18 H1         -0.1022    5.7207   -0.9933 H         1 <0>         0.0687
     19 H2         -0.9775    5.6964    0.5563 H         1 <0>         0.0715
     20 H3          0.8021    5.7276    0.5398 H         1 <0>         0.0558
     21 H4         -2.1878    3.6561    0.0426 H         1 <0>         0.1255
     22 H5         -2.1468    1.1957    0.0184 H         1 <0>         0.1234
     23 H6          0.0021   -0.0041    0.0020 H         1 <0>         0.1226
     24 H7          2.1167    1.2545   -0.0118 H         1 <0>         0.1147
     25 H8          2.3380    4.8578    0.0063 H         1 <0>         0.4033
     26 H9          3.5290    2.2694   -0.6083 H         1 <0>         0.0957
     27 H10         4.1126    3.7449    2.0062 H         1 <0>         0.0909
     28 H11         3.2715    2.1865    1.8642 H         1 <0>         0.1138
     29 H12         4.4324    4.3454   -1.6362 H         1 <0>         0.1166
     30 H13         4.7829    4.9962   -0.0207 H         1 <0>         0.0932
     31 H14         5.9287    2.8191   -2.7018 H         1 <0>         0.1062
     32 H15         7.0510    1.8205   -1.7470 H         1 <0>         0.0827
     33 H16         5.2936    1.5963   -1.5749 H         1 <0>         0.0817
     34 H17         7.1259    5.2135   -0.2026 H         1 <0>         0.0817
     35 H18         8.1203    3.9533   -0.9716 H         1 <0>         0.0834
     36 H19         6.9304    4.8599   -1.9361 H         1 <0>         0.1061
     37 H20         6.1242    0.1108    1.0628 H         1 <0>         0.0830
     38 H21         4.4168    0.1744    1.5617 H         1 <0>         0.1059
     39 H22         4.8805    0.6562   -0.0879 H         1 <0>         0.0806
     40 H23         6.0066    3.0501    3.2792 H         1 <0>         0.0804
     41 H24         5.1057    1.5322    3.5081 H         1 <0>         0.1056
     42 H25         6.7971    1.4885    2.9552 H         1 <0>         0.0825
     43 N2          6.4677    2.7812    0.6827 N.4       1 <0>        -0.5087
     44 H26         7.2082    2.0930    0.5031 H         1 <0>         0.4314
     45 H27         6.8376    3.5360    1.2724 H         1 <0>         0.4292
@<TRIPOS>BOND
     1    1    2 1
     2    1   18 1
     3    1   19 1
     4    1   20 1
     5    2    7 ar
     6    2    3 ar
     7    3    4 ar
     8    3   21 1
     9    4    5 ar
    10    4   22 1
    11    5    6 ar
    12    5   23 1
    13    6    7 ar
    14    6   24 1
    15    7    8 1
    16    8    9 1
    17    8   25 1
    18    9   13 1
    19    9   10 1
    20    9   26 1
    21   10   11 1
    22   10   27 1
    23   10   28 1
    24   11   16 1
    25   11   17 1
    26   11   43 1
    27   12   13 1
    28   12   14 1
    29   12   15 1
    30   12   43 1
    31   13   29 1
    32   13   30 1
    33   14   31 1
    34   14   32 1
    35   14   33 1
    36   15   34 1
    37   15   35 1
    38   15   36 1
    39   16   37 1
    40   16   38 1
    41   16   39 1
    42   17   40 1
    43   17   41 1
    44   17   42 1
    45   43   44 1
    46   43   45 1
