@<TRIPOS>MOLECULE
ZINC54979042
   41    43     0     0     0
SMALL
USER_CHARGES

@<TRIPOS>ATOM
      1 C1         -0.0167    1.3795    0.0096 C.ar      1 <0>        -0.0828
      2 C2          1.1683    2.0938    0.0021 C.ar      1 <0>        -0.1318
      3 C3          2.3774    1.4300   -0.0129 C.ar      1 <0>        -0.0548
      4 C4          2.4037    0.0340   -0.0206 C.ar      1 <0>        -0.1273
      5 C5          1.2041   -0.6806   -0.0130 C.ar      1 <0>        -0.0611
      6 C6          0.0021   -0.0041    0.0020 C.ar      1 <0>        -0.1334
      7 C7          3.6948   -0.6838   -0.0372 C.2       1 <0>         0.5110
      8 O1          4.7367   -0.0594   -0.0442 O.2       1 <0>        -0.5011
      9 O2          3.7166   -2.0307   -0.0446 O.3       1 <0>        -0.3455
     10 C8          5.0001   -2.6586   -0.0607 C.3       1 <0>         0.0856
     11 C9          4.8243   -4.1785   -0.0671 C.3       1 <0>         0.0876
     12 H1          4.1965   -4.4906    0.7676 H         1 <0>         0.1053
     13 C10         6.1992   -4.8792    0.0027 C.3       1 <0>         0.0939
     14 H2          6.4201   -5.1860    1.0251 H         1 <0>         0.0963
     15 C11         6.0376   -6.1150   -0.9104 C.3       1 <0>         0.0385
     16 H3          6.1785   -7.0328   -0.3396 H         1 <0>         0.0909
     17 C12         4.5841   -6.0148   -1.4239 C.3       1 <0>         0.2717
     18 H4          3.9188   -6.6100   -0.7985 H         1 <0>         0.1367
     19 O3          4.2492   -4.6128   -1.3186 O.3       1 <0>        -0.3499
     20 N1          4.5040   -6.4579   -2.8180 N.am      1 <0>        -0.3833
     21 C13         3.5054   -7.2781   -3.1913 C.2       1 <0>         0.6300
     22 O4          2.6816   -7.6425   -2.3686 O.2       1 <0>        -0.5196
     23 N2          3.4089   -7.6962   -4.4564 N.2       1 <0>        -0.5840
     24 C14         4.3128   -7.2914   -5.3410 C.2       1 <0>         0.4682
     25 C15         5.3481   -6.4289   -4.9078 C.2       1 <0>        -0.0360
     26 N3          5.3872   -6.0499   -3.6598 N.2       1 <0>        -0.1280
     27 N4          4.2446   -7.7024   -6.6516 N.pl3     1 <0>        -0.7933
     28 O5          6.9613   -6.0573   -1.9992 O.3       1 <0>        -0.5156
     29 O6          7.2260   -4.0178   -0.4930 O.3       1 <0>        -0.5322
     30 H5         -0.9605    1.9041    0.0260 H         1 <0>         0.1307
     31 H6          1.1465    3.1736    0.0078 H         1 <0>         0.1342
     32 H7          3.3016    1.9887   -0.0191 H         1 <0>         0.1383
     33 H8          1.2174   -1.7605   -0.0192 H         1 <0>         0.1387
     34 H9         -0.9265   -0.5555    0.0079 H         1 <0>         0.1328
     35 H10         5.5435   -2.3520   -0.9545 H         1 <0>         0.0918
     36 H11         5.5611   -2.3615    0.8254 H         1 <0>         0.0909
     37 H12         6.0972   -6.0841   -5.6053 H         1 <0>         0.2009
     38 H13         3.5311   -8.2938   -6.9380 H         1 <0>         0.4190
     39 H14         4.9100   -7.4007   -7.2897 H         1 <0>         0.4220
     40 H15         6.9032   -6.8092   -2.6046 H         1 <0>         0.3750
     41 H16         8.1106   -4.4078   -0.4722 H         1 <0>         0.3898
@<TRIPOS>BOND
     1    1    6 ar
     2    1    2 ar
     3    1   30 1
     4    2    3 ar
     5    2   31 1
     6    3    4 ar
     7    3   32 1
     8    4    5 ar
     9    4    7 1
    10    5    6 ar
    11    5   33 1
    12    6   34 1
    13    7    8 2
    14    7    9 1
    15    9   10 1
    16   10   11 1
    17   10   35 1
    18   10   36 1
    19   11   12 1
    20   11   19 1
    21   11   13 1
    22   13   14 1
    23   13   15 1
    24   13   29 1
    25   15   16 1
    26   15   17 1
    27   15   28 1
    28   17   18 1
    29   17   19 1
    30   17   20 1
    31   20   26 1
    32   20   21 am
    33   21   22 2
    34   21   23 1
    35   23   24 2
    36   24   25 1
    37   24   27 1
    38   25   26 2
    39   25   37 1
    40   27   38 1
    41   27   39 1
    42   28   40 1
    43   29   41 1
