REMARK  2 active torsions:
REMARK  status: ('A' for Active; 'I' for Inactive)
REMARK    1  A    between atoms: C7_7  and  N1_8 
REMARK    2  A    between atoms: N1_8  and  C8_9 
ROOT
ATOM      1  C8  <0> d           3.636   3.174  -0.015  0.00  0.00     0.086 C 
ATOM      2  C9  <0> d           4.036   2.827   1.419  0.00  0.00     0.063 C 
ATOM      3  C10 <0> d           5.379   2.101   1.435  0.00  0.00     0.121 C 
ATOM      4  C11 <0> d           6.062   3.372  -0.621  0.00  0.00     0.121 C 
ATOM      5  C12 <0> d           4.710   4.081  -0.613  0.00  0.00     0.063 C 
ATOM      6  C13 <0> d           6.085   2.326  -1.742  0.00  0.00     0.046 C 
ATOM      7  C14 <0> d           7.139   4.427  -0.958  0.00  0.00     0.046 C 
ATOM      8  C15 <0> d           5.186   0.656   0.958  0.00  0.00     0.046 C 
ATOM      9  C16 <0> d           5.857   2.038   2.902  0.00  0.00     0.046 C 
ATOM     10  N2  <0> d           6.468   2.781   0.683  0.00  0.00    -0.059 N 
ATOM     11  H26 <0> d           7.208   2.093   0.503  0.00  0.00     0.279 HD
ATOM     12  H27 <0> d           6.838   3.536   1.272  0.00  0.00     0.279 HD
ENDROOT
BRANCH   1  13
ATOM     13  N1  <0> d           2.353   3.888   0.001  0.00  0.00    -0.385 N 
ATOM     14  H8  <0> d           2.338   4.858   0.006  0.00  0.00     0.160 HD
BRANCH  13  15
ATOM     15  C7  <0> d           1.154   3.171   0.008  0.00  0.00     0.034 A 
ATOM     16  C2  <0> d          -0.060   3.845   0.023  0.00  0.00    -0.036 A 
ATOM     17  C1  <0> d          -0.086   5.352   0.032  0.00  0.00     0.050 C 
ATOM     18  C3  <0> d          -1.243   3.133   0.031  0.00  0.00     0.009 A 
ATOM     19  C4  <0> d          -1.220   1.750   0.017  0.00  0.00     0.001 A 
ATOM     20  C5  <0> d          -0.013   1.076   0.008  0.00  0.00     0.002 A 
ATOM     21  C6  <0> d           1.174   1.782   0.000  0.00  0.00     0.029 A 
ENDBRANCH  13  15
ENDBRANCH   1  13
TORSDOF 2
