REMARK  3 active torsions:
REMARK  status: ('A' for Active; 'I' for Inactive)
REMARK    1  A    between atoms: C7_8  and  C8_10 
REMARK    2  A    between atoms: C9_11  and  S3_14 
REMARK    3  A    between atoms: S3_14  and  C11_17 
ROOT
ATOM      1  C8  <0> d           2.215   5.047   2.192  0.00  0.00     0.054 C 
ATOM      2  C9  <0> d           1.155   4.360   1.697  0.00  0.00     0.145 C 
ATOM      3  C10 <0> d           0.043   4.051   2.545  0.00  0.00     0.112 C 
ATOM      4  N1  <0> d          -0.839   3.806   3.217  0.00  0.00    -0.191 NA
ENDROOT
BRANCH   2   5
ATOM      5  S3  <0> d           1.146   3.847   0.011  0.00  0.00     0.216 S 
ATOM      6  O1  <0> d           2.380   4.274  -0.549  0.00  0.00    -0.216 OA
ATOM      7  O2  <0> d          -0.110   4.239  -0.526  0.00  0.00    -0.216 OA
BRANCH   5   8
ATOM      8  C11 <0> d           1.171   2.086   0.002  0.00  0.00     0.065 A 
ATOM      9  C16 <0> d           2.378   1.412  -0.013  0.00  0.00     0.025 A 
ATOM     10  C15 <0> d           2.398   0.030  -0.021  0.00  0.00     0.025 A 
ATOM     11  C14 <0> d           1.210  -0.679  -0.013  0.00  0.00     0.034 A 
ATOM     12  C13 <0> d           0.002  -0.004   0.002  0.00  0.00     0.025 A 
ATOM     13 Cl1  <0> d           1.234  -2.415  -0.022  0.00  0.00    -0.084 Cl
ATOM     14  C12 <0> d          -0.017   1.378   0.010  0.00  0.00     0.025 A 
ENDBRANCH   5   8
ENDBRANCH   2   5
BRANCH   1  15
ATOM     15  C7  <0> d           2.221   5.459   3.546  0.00  0.00     0.015 A 
ATOM     16  C6  <0> d           3.191   6.151   4.230  0.00  0.00    -0.032 A 
ATOM     17  C5  <0> d           3.009   6.476   5.599  0.00  0.00     0.002 A 
ATOM     18  C17 <0> d           4.453   6.570   3.522  0.00  0.00     0.050 C 
ATOM     19  C2  <0> d           3.827   7.192   6.596  0.00  0.00    -0.043 A 
ATOM     20  C4  <0> d           1.791   6.018   6.130  0.00  0.00     0.057 A 
ATOM     21  C1  <0> d           5.168   7.755   6.203  0.00  0.00     0.049 C 
ATOM     22  C3  <0> d           3.381   7.342   7.846  0.00  0.00     0.058 A 
ATOM     23  S1  <0> d           1.795   6.527   7.815  0.00  0.00    -0.093 SA
ATOM     24  S2  <0> d           0.975   5.203   4.799  0.00  0.00    -0.082 SA
ENDBRANCH   1  15
TORSDOF 3
